STAAD SPACE
START JOB INFORMATION
ENGINEER DATE 01-Feb-24
END JOB INFORMATION
INPUT WIDTH 79
UNIT METER KN
JOINT COORDINATES
1 0.115 0 0.115; 2 2.54 0 0.115; 3 6.19 0 0.115; 4 10.115 0 0.115;
5 14.115 0 0.115; 6 18.04 0 0.115; 7 21.69 0 0.115; 8 24.115 0 0.115;
9 0.115 0 5.64; 10 2.54 0 5.64; 11 6.19 0 5.64; 12 10.115 0 5.64;
13 14.115 0 5.64; 14 18.04 0 5.64; 15 21.69 0 5.64; 16 24.115 0 5.64;
17 0.115 0 10.64; 18 2.54 0 10.64; 19 6.19 0 10.64; 20 10.115 0 10.64;
21 14.115 0 10.64; 22 18.04 0 10.64; 23 21.69 0 10.64; 24 24.115 0 10.64;
25 0.115 0 15.115; 26 2.54 0 15.115; 27 6.19 0 15.115; 28 10.115 0 15.115;
29 14.115 0 15.115; 30 18.04 0 15.115; 31 21.69 0 15.115; 32 24.115 0 15.115;
33 0.115 0 17.615; 34 2.54 0 17.615; 35 6.19 0 17.615; 36 10.115 0 17.615;
37 14.115 0 17.615; 38 18.04 0 17.615; 39 21.69 0 17.615; 40 24.115 0 17.615;
41 0.115 0 22.09; 42 2.54 0 22.09; 43 6.19 0 22.09; 44 10.115 0 22.09;
45 14.115 0 22.09; 46 18.04 0 22.09; 47 21.69 0 22.09; 48 24.115 0 22.09;
49 0.115 0 27.09; 50 2.54 0 27.09; 51 6.19 0 27.09; 52 10.115 0 27.09;
53 14.115 0 27.09; 54 18.04 0 27.09; 55 21.69 0 27.09; 56 24.115 0 27.09;
57 0.115 0 32.615; 58 2.54 0 32.615; 59 6.19 0 32.615; 60 10.115 0 32.615;
61 14.115 0 32.615; 62 18.04 0 32.615; 63 21.69 0 32.615; 64 24.115 0 32.615;
65 9.19 0 15.115; 66 9.19 0 17.615; 67 15.04 0 15.115; 68 15.04 0 17.615;
69 10.115 0 13.64; 70 14.115 0 13.64; 71 10.115 0 19.09; 72 14.115 0 19.09;
73 0.115 2.7 0.115; 74 2.54 2.7 0.115; 75 6.19 2.7 0.115; 76 10.115 2.7 0.115;
77 14.115 2.7 0.115; 78 18.04 2.7 0.115; 79 21.69 2.7 0.115;
# ... 525 like lines cut
MEMBER INCIDENCES
113 1 73; 114 2 74; 115 3 75; 116 4 76; 117 5 77; 118 6 78; 119 7 79; 120 8 80;
121 9 81; 122 10 82; 123 11 83; 124 12 84; 125 13 85; 126 14 86; 127 15 87;
128 16 88; 129 17 89; 130 18 90; 131 19 91; 132 20 92; 133 21 93; 134 22 94;
135 23 95; 136 24 96; 137 25 97; 138 26 98; 139 27 99; 140 28 100; 141 29 101;
142 30 102; 143 31 103; 144 32 104; 145 33 105; 146 34 106; 147 35 107;
148 36 108; 149 37 109; 150 38 110; 151 39 111; 152 40 112; 153 41 113;
154 42 114; 155 43 115; 156 44 116; 157 45 117; 158 46 118; 159 47 119;
160 48 120; 161 49 121; 162 50 122; 163 51 123; 164 52 124; 165 53 125;
166 54 126; 167 55 127; 168 56 128; 169 57 129; 170 58 130; 171 59 131;
172 60 132; 173 61 133; 174 62 134; 175 63 135; 176 64 136; 177 65 137;
178 66 138; 179 67 139; 180 68 140; 181 69 141; 182 70 142; 183 71 143;
184 72 144; 185 73 74; 186 74 75; 187 75 76; 188 76 84; 189 97 98; 190 98 99;
191 99 137; 192 100 141; 193 92 84; 194 97 89; 195 89 81; 196 81 73; 197 81 82;
198 82 83; 199 83 84; 200 89 90; 201 90 91; 202 91 92; 203 82 90; 204 90 98;
205 83 91; 206 91 99; 207 82 74; 208 75 83; 209 77 78; 210 78 79; 211 79 80;
212 80 88; 213 85 86; 214 86 87; 215 87 88; 216 85 77; 217 86 78; 218 87 79;
219 85 93; 220 93 94; 221 94 86; 222 94 95; 223 95 87; 224 95 96; 225 96 88;
226 93 142; 227 101 139; 228 102 94; 229 102 103; 230 103 95; 231 103 104;
232 104 96; 233 109 140; 234 110 111; 235 111 112; 236 112 120; 237 120 128;
238 128 136; 239 136 135; 240 135 134; 241 134 133; 242 133 125; 243 125 126;
# ... 759 like lines cut
ELEMENT INCIDENCES SHELL
4168 129 132 108 105; 4169 133 136 112 109; 4170 97 100 76 73;
4171 101 104 80 77; 4172 138 140 139 137; 4173 143 144 109 108;
4174 100 101 142 141; 4175 201 204 180 177; 4176 205 208 184 181;
4177 169 172 148 145; 4178 173 176 152 149; 4179 210 212 211 209;
4180 215 216 181 180; 4181 172 173 214 213; 4182 273 276 252 249;
4183 277 280 256 253; 4184 241 244 220 217; 4185 245 248 224 221;
4186 282 284 283 281; 4187 287 288 253 252; 4188 244 245 286 285;
4189 345 348 324 321; 4190 349 352 328 325; 4191 313 316 292 289;
4192 317 320 296 293; 4193 354 356 355 353; 4194 359 360 325 324;
4195 316 317 358 357; 4196 417 420 396 393; 4197 421 424 400 397;
4198 385 388 364 361; 4199 389 392 368 365; 4200 426 428 427 425;
4201 431 432 397 396; 4202 388 389 430 429; 4203 489 492 468 465;
4204 493 496 472 469; 4205 457 460 436 433; 4206 461 464 440 437;
4207 498 500 499 497; 4208 503 504 469 468; 4209 460 461 502 501;
4210 561 564 540 537; 4211 565 568 544 541; 4212 529 532 508 505;
4213 533 536 512 509; 4214 570 572 571 569; 4215 575 576 541 540;
4216 532 533 574 573; 4217 633 636 612 609; 4218 637 640 616 613;
4219 601 604 580 577; 4220 605 608 584 581; 4221 642 644 643 641;
4222 647 648 613 612; 4223 604 605 646 645; 4224 705 708 684 681;
4225 709 712 688 685; 4226 673 676 652 649; 4227 677 680 656 653;
# ... 32 like lines cut
ELEMENT PROPERTY
4168 TO 4321 THICKNESS 0.15
DEFINE MATERIAL START
ISOTROPIC CONCRETE
E 2.17185e+007
POISSON 0.17
DENSITY 23.5616
ALPHA 1e-005
DAMP 0.05
TYPE CONCRETE
STRENGTH FCU 27579
END DEFINE MATERIAL
MEMBER PROPERTY AMERICAN
185 TO 296 369 TO 480 553 TO 664 737 TO 848 921 TO 1032 1105 TO 1216 1289 -
1290 TO 1400 1473 TO 1584 1657 TO 1768 1841 TO 1952 2025 TO 2136 2209 TO 2320 -
2393 TO 2504 2577 TO 2688 2761 TO 2872 2945 TO 3056 3129 TO 3240 -
3313 TO 3424 3497 TO 3608 3681 TO 3792 3865 TO 3976 4049 TO 4159 -
4160 PRIS YD 0.4 ZD 0.4
113 TO 184 297 TO 368 481 TO 552 665 TO 736 849 TO 920 1033 TO 1104 -
1217 TO 1288 1401 TO 1472 PRIS YD 0.8 ZD 0.8
1585 TO 1656 1769 TO 1840 1953 TO 2024 2137 TO 2208 2321 TO 2392 2505 TO 2576 -
2689 TO 2760 2873 TO 2944 PRIS YD 0.65 ZD 0.65
3057 TO 3128 3241 TO 3312 3425 TO 3496 3609 TO 3680 3793 TO 3864 3977 TO 4047 -
4048 PRIS YD 0.47 ZD 0.47
CONSTANTS
MATERIAL CONCRETE ALL
SUPPORTS
1 TO 72 FIXED
DEFINE WIND LOAD
TYPE 1 WL
INT 0.61824 0.61824 0.61824 0.61824 0.61824 0.61824 0.6774 0.76973 0.86796 -
 0.93282 0.97336 1.01476 1.05702 1.10014 1.14413 1.17503 1.18892 1.20289 -
 1.21695 1.23109 1.2453 1.2596 HEIG  2.7  5.95  9.2  12.45  15.7  18.95  22.2 -
 25.45  28.7  31.95  35.2  38.45  41.7  44.95  48.2  51.45  54.7  57.95  61.2 -
 64.45  67.7  70.95
EXP 1 JOINT 1 TO 1656
DEFINE 1893 LOAD
ZONE 0.24 RF 5 I 1 SS 1 ST 1 DM 0.05
SELFWEIGHT 1 
MEMBER WEIGHT
185 TO 296 369 TO 480 553 TO 664 737 TO 848 921 TO 1032 1105 TO 1216 1289 -
1290 TO 1400 1473 TO 1584 1657 TO 1768 1841 TO 1952 2025 TO 2136 2209 TO 2320 -
2393 TO 2504 2577 TO 2688 2761 TO 2872 2945 TO 3056 3129 TO 3240 -
3313 TO 3424 3497 TO 3608 3681 TO 3792 3865 TO 3976 4049 TO 4159 -
4160 UNI -4.8125
FLOOR WEIGHT
YRANGE 2.7 70.95 FLOAD -2.75
LOAD 1 LOADTYPE Seismic  TITLE SL_+X
1893 LOAD X 1
PERFORM ANALYSIS
CHANGE
LOAD 2 LOADTYPE Seismic  TITLE SL_-X
1893 LOAD X -1
PERFORM ANALYSIS
CHANGE
LOAD 3 LOADTYPE Seismic  TITLE SL_+Z
1893 LOAD Z 1
PERFORM ANALYSIS
CHANGE
LOAD 4 LOADTYPE Seismic  TITLE SL_-Z
1893 LOAD Z -1
PERFORM ANALYSIS
CHANGE
LOAD 5 LOADTYPE Dead  TITLE DL
SELFWEIGHT Y -1 
MEMBER LOAD
140 178 185 TO 196 209 TO 212 216 219 225 TO 227 229 231 TO 242 249 250 257 -
258 TO 268 281 TO 293 296 324 362 369 TO 380 393 TO 396 400 403 409 TO 411 -
413 415 TO 426 433 434 441 TO 452 465 TO 477 480 508 546 553 TO 564 -
577 TO 580 584 587 593 TO 595 597 599 TO 610 617 618 625 TO 636 649 TO 661 -
664 692 730 737 TO 748 761 TO 764 768 771 777 TO 779 781 783 TO 794 801 802 -
809 TO 820 833 TO 845 848 876 914 921 TO 932 945 TO 948 952 955 961 TO 963 -
965 967 TO 978 985 986 993 TO 1004 1017 TO 1029 1032 1060 1098 1105 TO 1116 -
1129 TO 1132 1136 1139 1145 TO 1147 1149 1151 TO 1162 1169 1170 1177 TO 1188 -
1201 TO 1213 1216 1244 1282 1289 TO 1300 1313 TO 1316 1320 1323 1329 TO 1331 -
1333 1335 TO 1346 1353 1354 1361 TO 1372 1385 TO 1397 1400 1428 1466 1473 -
1474 TO 1484 1497 TO 1500 1504 1507 1513 TO 1515 1517 1519 TO 1530 1537 1538 -
1545 TO 1556 1569 TO 1581 1584 1612 1650 1657 TO 1668 1681 TO 1684 1688 1691 -
1697 TO 1699 1701 1703 TO 1714 1721 1722 1729 TO 1740 1753 TO 1765 1768 1796 -
1834 1841 TO 1852 1865 TO 1868 1872 1875 1881 TO 1883 1885 1887 TO 1898 1905 -
1906 1913 TO 1924 1937 TO 1949 1952 1980 2018 2025 TO 2036 2049 TO 2052 2056 -
2059 2065 TO 2067 2069 2071 TO 2082 2089 2090 2097 UNI GY -14.95
2098 TO 2108 2121 TO 2133 2136 2164 2202 2209 TO 2220 2233 TO 2236 2240 2243 -
2249 TO 2251 2253 2255 TO 2266 2273 2274 2281 TO 2292 2305 TO 2317 2320 2348 -
2386 2393 TO 2404 2417 TO 2420 2424 2427 2433 TO 2435 2437 2439 TO 2450 2457 -
2458 2465 TO 2476 2489 TO 2501 2504 2532 2570 2577 TO 2588 2601 TO 2604 2608 -
2611 2617 TO 2619 2621 2623 TO 2634 2641 2642 2649 TO 2660 2673 TO 2685 2688 -
2716 2754 2761 TO 2772 2785 TO 2788 2792 2795 2801 TO 2803 2805 2807 TO 2818 -
2825 2826 2833 TO 2844 2857 TO 2869 2872 2900 2938 2945 TO 2956 2969 TO 2972 -
2976 2979 2985 TO 2987 2989 2991 TO 3002 3009 3010 3017 TO 3028 3041 TO 3053 -
3056 3084 3122 3129 TO 3140 3153 TO 3156 3160 3163 3169 TO 3171 3173 3175 -
3176 TO 3186 3193 3194 3201 TO 3212 3225 TO 3237 3240 3268 3306 3313 TO 3324 -
3337 TO 3340 3344 3347 3353 TO 3355 3357 3359 TO 3370 3377 3378 3385 TO 3396 -
3409 TO 3421 3424 3452 3490 3497 TO 3508 3521 TO 3524 3528 3531 3537 TO 3539 -
3541 3543 TO 3554 3561 3562 3569 TO 3580 3593 TO 3605 3608 3636 3674 3681 -
3682 TO 3692 3705 TO 3708 3712 3715 3721 TO 3723 3725 3727 TO 3738 3745 3746 -
3753 TO 3764 3777 TO 3789 3792 3820 3858 3865 TO 3876 3889 TO 3892 3896 3899 -
3905 TO 3907 3909 3911 TO 3922 3929 3930 3937 TO 3948 3961 TO 3973 3976 4004 -
4042 4049 TO 4060 4073 TO 4076 4080 4083 4089 TO 4091 UNI GY -14.95
4093 4095 TO 4106 4113 4114 4121 TO 4132 4145 TO 4157 4160 UNI GY -14.95
197 TO 208 213 TO 215 217 218 220 TO 224 228 230 243 TO 248 251 TO 256 269 -
270 TO 280 381 TO 392 397 TO 399 401 402 404 TO 408 412 414 427 TO 432 435 -
436 TO 440 453 TO 464 565 TO 576 581 TO 583 585 586 588 TO 592 596 598 611 -
612 TO 616 619 TO 624 637 TO 648 749 TO 760 765 TO 767 769 770 772 TO 776 -
780 782 795 TO 800 803 TO 808 821 TO 832 933 TO 944 949 TO 951 953 954 956 -
957 TO 960 964 966 979 TO 984 987 TO 992 1005 TO 1016 1117 TO 1128 -
1133 TO 1135 1137 1138 1140 TO 1144 1148 1150 1163 TO 1168 1171 TO 1176 1189 -
1190 TO 1200 1301 TO 1312 1317 TO 1319 1321 1322 1324 TO 1328 1332 1334 1347 -
1348 TO 1352 1355 TO 1360 1373 TO 1384 1485 TO 1496 1501 TO 1503 1505 1506 -
1508 TO 1512 1516 1518 1531 TO 1536 1539 TO 1544 1557 TO 1568 1669 TO 1680 -
1685 TO 1687 1689 1690 1692 TO 1696 1700 1702 1715 TO 1720 1723 TO 1728 1741 -
1742 TO 1752 1853 TO 1864 1869 TO 1871 1873 1874 1876 TO 1880 1884 1886 1899 -
1900 TO 1904 1907 TO 1912 1925 TO 1936 2037 TO 2048 2053 TO 2055 2057 2058 -
2060 TO 2064 2068 2070 2083 TO 2088 2091 TO 2096 2109 TO 2120 2221 TO 2232 -
2237 TO 2239 2241 2242 2244 TO 2248 2252 2254 2267 TO 2272 2275 TO 2280 2293 -
2294 TO 2304 2405 TO 2416 2421 TO 2423 2425 2426 2428 TO 2432 2436 2438 2451 -
2452 TO 2456 UNI GY -9.75
2459 TO 2464 2477 TO 2488 2589 TO 2600 2605 TO 2607 2609 2610 2612 TO 2616 -
2620 2622 2635 TO 2640 2643 TO 2648 2661 TO 2672 2773 TO 2784 2789 TO 2791 -
2793 2794 2796 TO 2800 2804 2806 2819 TO 2824 2827 TO 2832 2845 TO 2856 2957 -
2958 TO 2968 2973 TO 2975 2977 2978 2980 TO 2984 2988 2990 3003 TO 3008 3011 -
3012 TO 3016 3029 TO 3040 3141 TO 3152 3157 TO 3159 3161 3162 3164 TO 3168 -
3172 3174 3187 TO 3192 3195 TO 3200 3213 TO 3224 3325 TO 3336 3341 TO 3343 -
3345 3346 3348 TO 3352 3356 3358 3371 TO 3376 3379 TO 3384 3397 TO 3408 3509 -
3510 TO 3520 3525 TO 3527 3529 3530 3532 TO 3536 3540 3542 3555 TO 3560 3563 -
3564 TO 3568 3581 TO 3592 3693 TO 3704 3709 TO 3711 3713 3714 3716 TO 3720 -
3724 3726 3739 TO 3744 3747 TO 3752 3765 TO 3776 3877 TO 3888 3893 TO 3895 -
3897 3898 3900 TO 3904 3908 3910 3923 TO 3928 3931 TO 3936 3949 TO 3960 4061 -
4062 TO 4072 4077 TO 4079 4081 4082 4084 TO 4088 4092 4094 4107 TO 4112 4115 -
4116 TO 4120 4133 TO 4144 UNI GY -9.75
LOAD 6 LOADTYPE Wind  TITLE WL_+X
WIND LOAD X 1 TYPE 1 YR 2.7 70.95 ZR 0.115 32.615
LOAD 7 LOADTYPE Wind  TITLE WL_-X
WIND LOAD X -1 TYPE 1 YR 2.7 70.95 ZR 0.115 32.615
LOAD 8 LOADTYPE Wind  TITLE WL_+Z
WIND LOAD Z 1 TYPE 1 XR 0.115 24.115 YR 2.7 70.95
LOAD 9 LOADTYPE Wind  TITLE WL_-Z
WIND LOAD Z -1 TYPE 1 XR 0.115 24.115 YR 2.7 70.95
LOAD 10 LOADTYPE Live REDUCIBLE TITLE LL
FLOOR LOAD
YRANGE 2.7 67.7 FLOAD -3 XRANGE 0.115 10.115  ZRANGE 0.115 15.115  GY
YRANGE 2.7 67.7 FLOAD -3 XRANGE 14.115 24.115  ZRANGE 0.115 15.115  GY
YRANGE 2.7 67.7 FLOAD -3 XRANGE 0.115 10.115  ZRANGE 17.615 32.615  GY
YRANGE 2.7 67.7 FLOAD -3 XRANGE 14.115 24.115  ZRANGE 17.615 32.615  GY
LOAD COMB 11 COMBINATION LOAD CASE 11
5 1.5 10 1.5 
LOAD COMB 12 COMBINATION LOAD CASE 12
5 1.2 6 1.2 10 1.2 
LOAD COMB 13 COMBINATION LOAD CASE 13
5 1.2 8 1.2 10 1.2 
LOAD COMB 14 COMBINATION LOAD CASE 14
5 1.2 7 1.2 10 1.2 
LOAD COMB 15 COMBINATION LOAD CASE 15
5 1.2 9 1.2 10 1.2 
LOAD COMB 16 COMBINATION LOAD CASE 16
1 1.2 5 1.2 10 1.2 
LOAD COMB 17 COMBINATION LOAD CASE 17
2 1.2 5 1.2 10 1.2 
LOAD COMB 18 COMBINATION LOAD CASE 18
3 1.2 5 1.2 10 1.2 
LOAD COMB 19 COMBINATION LOAD CASE 19
4 1.2 5 1.2 10 1.2 
LOAD COMB 20 COMBINATION LOAD CASE 20
5 1.5 6 1.5 
LOAD COMB 21 COMBINATION LOAD CASE 21
5 1.5 8 1.5 
LOAD COMB 22 COMBINATION LOAD CASE 22
5 1.5 7 1.5 
LOAD COMB 23 COMBINATION LOAD CASE 23
5 1.5 8 -1.5 
LOAD COMB 24 COMBINATION LOAD CASE 24
1 1.5 5 1.5 
LOAD COMB 25 COMBINATION LOAD CASE 25
3 1.5 5 1.5 
LOAD COMB 26 COMBINATION LOAD CASE 26
1 -1.5 5 1.5 
LOAD COMB 27 COMBINATION LOAD CASE 27
3 -1.5 5 1.5 
LOAD COMB 28 COMBINATION LOAD CASE 28
1 1.5 5 0.9 
LOAD COMB 29 COMBINATION LOAD CASE 29
3 1.5 5 0.9 
LOAD COMB 30 COMBINATION LOAD CASE 30
1 -1.5 5 0.9 
PERFORM ANALYSIS
PERFORM ANALYSIS
FINISH
